/*--------------------------------*- C++ -*----------------------------------*\
| =========                 |                                                 |
| \\      /  F ield         | OpenFOAM: The Open Source CFD Toolbox           |
|  \\    /   O peration     | Version:  1.5                                   |
|   \\  /    A nd           | Web:      http://www.OpenFOAM.org               |
|    \\/     M anipulation  |                                                 |
\*---------------------------------------------------------------------------*/
FoamFile
{
    version     2.0;
    format      ascii;
    class       volScalarField;
    object      q;
}
// * * * * * * * * * * * * * * * * * * * * * * * * * * * * * * * * * * * * * //

dimensions      [0 1 -1 0 0 0 0];

internalField   uniform 0.06;

boundaryField
{
    inlet           
    {
        type            fixedValue;
        value           uniform 0.06;
    }

    outlet          
    {
        type            zeroGradient;
    }

    top
    {
        type            inletOutlet;
        inletValue      uniform 0.06;
        value           uniform 0.06;
    }

    solid       
    {
        type            fixedValue;
        value           uniform 0;
    }

    frontAndBack    
    {
        type            empty;
    }
}

// ************************************************************************* //
